data_image0
_cell_length_a       12.4813
_cell_length_b       8.64126
_cell_length_c       6.11126
_cell_angle_alpha    90
_cell_angle_beta     90
_cell_angle_gamma    90

_symmetry_space_group_name_H-M    "P 1"
_symmetry_int_tables_number       1

loop_
  _symmetry_equiv_pos_as_xyz
  'x, y, z'

loop_
  _atom_site_label
  _atom_site_occupancy
  _atom_site_fract_x
  _atom_site_fract_y
  _atom_site_fract_z
  _atom_site_thermal_displace_type
  _atom_site_B_iso_or_equiv
  _atom_site_type_symbol
  Co1      1.0000 0.00000  0.00000  0.00000  Biso   1.000  Co
  Co2      1.0000 0.90000  0.75000  0.00000  Biso   1.000  Co
  Co3      1.0000 0.90000  0.91700  0.67000  Biso   1.000  Co
  Co4      1.0000 0.00000  0.83000  0.33000  Biso   1.000  Co
  Co5      1.0000 0.90000  0.58300  0.33000  Biso   1.000  Co
  Co6      1.0000 0.00000  0.50000  0.00000  Biso   1.000  Co
  Co7      1.0000 0.90000  0.25000  0.00000  Biso   1.000  Co
  Co8      1.0000 0.00000  0.16600  0.66600  Biso   1.000  Co
  Co9      1.0000 0.00000  0.33300  0.33300  Biso   1.000  Co
  Co10     1.0000 0.70000  0.75000  0.00000  Biso   1.000  Co
  Co11     1.0000 0.80000  0.66000  0.66000  Biso   1.000  Co
  Co12     1.0000 0.70000  0.25000  0.00000  Biso   1.000  Co
  Co13     1.0000 0.70000  0.41660  0.66600  Biso   1.000  Co
  Co14     1.0000 0.50000  0.75000  0.00000  Biso   1.000  Co
  Co15     1.0000 0.50000  0.91660  0.66000  Biso   1.000  Co
  Co16     1.0000 0.60000  0.66000  0.66000  Biso   1.000  Co
  Co17     1.0000 0.60000  0.83300  0.33300  Biso   1.000  Co
  Co18     1.0000 0.50000  0.58330  0.33300  Biso   1.000  Co
  Co19     1.0000 0.60000  0.50000  0.00000  Biso   1.000  Co
  Co20     1.0000 0.60000  0.16666  0.66000  Biso   1.000  Co
  Co21     1.0000 0.60000  0.33000  0.33000  Biso   1.000  Co
  Co22     1.0000 0.50000  0.08330  0.33000  Biso   1.000  Co
  Co23     1.0000 0.30000  0.91600  0.66000  Biso   1.000  Co
  Co24     1.0000 0.40000  0.66000  0.66000  Biso   1.000  Co
  Co25     1.0000 0.40000  0.83300  0.33300  Biso   1.000  Co
  Co26     1.0000 0.30000  0.58330  0.33300  Biso   1.000  Co
  Co27     1.0000 0.40000  0.50000  0.00000  Biso   1.000  Co
  Co28     1.0000 0.20000  0.00000  0.00000  Biso   1.000  Co
  Co29     1.0000 0.20000  0.66000  0.66000  Biso   1.000  Co
  Co30     1.0000 0.20000  0.50000  0.00000  Biso   1.000  Co
  Ni1      1.0000 0.00000  0.67000  0.67000  Biso   1.000  Ni
  Ni2      1.0000 0.90000  0.08330  0.33300  Biso   1.000  Ni
  Ni3      1.0000 0.80000  0.00000  0.00000  Biso   1.000  Ni
  Ni4      1.0000 0.70000  0.91660  0.66000  Biso   1.000  Ni
  Ni5      1.0000 0.70000  0.58330  0.33000  Biso   1.000  Ni
  Ni6      1.0000 0.80000  0.50000  0.00000  Biso   1.000  Ni
  Ni7      1.0000 0.80000  0.16600  0.66600  Biso   1.000  Ni
  Ni8      1.0000 0.80000  0.33300  0.33300  Biso   1.000  Ni
  Ni9      1.0000 0.70000  0.08200  0.33000  Biso   1.000  Ni
  Ni10     1.0000 0.60000  0.00000  0.00000  Biso   1.000  Ni
  Ni11     1.0000 0.50000  0.25000  0.00000  Biso   1.000  Ni
  Ni12     1.0000 0.40000  0.00000  0.00000  Biso   1.000  Ni
  Ni13     1.0000 0.30000  0.75000  0.00000  Biso   1.000  Ni
  Ni14     1.0000 0.30000  0.25000  0.00000  Biso   1.000  Ni
  Ni15     1.0000 0.30000  0.41600  0.66000  Biso   1.000  Ni
  Ni16     1.0000 0.40000  0.16600  0.66000  Biso   1.000  Ni
  Ni17     1.0000 0.40000  0.33000  0.33000  Biso   1.000  Ni
  Ni18     1.0000 0.30000  0.08300  0.33000  Biso   1.000  Ni
  Ni19     1.0000 0.10000  0.75000  0.00000  Biso   1.000  Ni
  Ni20     1.0000 0.10000  0.91660  0.66000  Biso   1.000  Ni
  Ni21     1.0000 0.20000  0.83300  0.33300  Biso   1.000  Ni
  Ni22     1.0000 0.10000  0.25000  0.00000  Biso   1.000  Ni
  Ni23     1.0000 0.20000  0.16600  0.66000  Biso   1.000  Ni
  Ni24     1.0000 0.10000  0.08330  0.33300  Biso   1.000  Ni
  Pd1      1.0000 0.90000  0.41600  0.66000  Biso   1.000  Pd
  Pd2      1.0000 0.80000  0.83300  0.33000  Biso   1.000  Pd
  Pd3      1.0000 0.20000  0.33300  0.33300  Biso   1.000  Pd
  Pt1      1.0000 0.50000  0.41666  0.66000  Biso   1.000  Pt
  Pt2      1.0000 0.10000  0.51330  0.33300  Biso   1.000  Pt
  Pt3      1.0000 0.10000  0.41660  0.66000  Biso   1.000  Pt
